IEEE 123-bus feeder/IEEE123openDSSdata/ieee123_VLN_Node.Txt

LINE-GROUND and LINE-LINE VOLTAGES BY BUS & NODE

Bus      Node    VLN (kV)   Angle      pu     Base kV    Node-Node   VLL (kV)  Angle      pu

150 .... 1       2.4018 /_    0.0   0.99999     4.160        1-2       4.16 /_   30.0   0.99999
   -     2       2.4018 /_ -120.0   0.99999     4.160        2-3       4.16 /_  -90.0   0.99999
   -     3       2.4018 /_  120.0   0.99999     4.160        3-1       4.16 /_  150.0   0.99999
150R ... 1       2.5068 /_    0.0    1.0437     4.160        1-2     4.3419 /_   30.0    1.0437
   -     2       2.5068 /_ -120.0    1.0437     4.160        2-3      4.342 /_  -90.0    1.0437
   -     3       2.5068 /_  120.0    1.0437     4.160        3-1      4.342 /_  150.0    1.0437
149 .... 1       2.5068 /_    0.0    1.0437     4.160        1-2     4.3419 /_   30.0    1.0437
   -     2       2.5068 /_ -120.0    1.0437     4.160        2-3      4.342 /_  -90.0    1.0437
   -     3       2.5068 /_  120.0    1.0437     4.160        3-1      4.342 /_  150.0    1.0437
1 ...... 1       2.4769 /_   -0.6    1.0313     4.160        1-2     4.3038 /_   29.7    1.0346
   -     2       2.5009 /_ -120.3    1.0413     4.160        2-3     4.3199 /_  -90.4    1.0384
   -     3       2.4855 /_  119.6    1.0349     4.160        3-1     4.3032 /_  149.4    1.0344
2 ...... 2       2.5004 /_ -120.3    1.0411     4.160
3 ...... 3       2.4816 /_  119.6    1.0332     4.160
7 ...... 1       2.4546 /_   -1.1     1.022     4.160        1-2     4.2762 /_   29.5    1.0279
   -     2       2.4967 /_ -120.6    1.0395     4.160        2-3     4.3044 /_  -90.8    1.0347
   -     3       2.4718 /_  119.4    1.0292     4.160        3-1     4.2766 /_  149.0     1.028
4 ...... 3       2.4803 /_  119.6    1.0327     4.160
5 ...... 3       2.4784 /_  119.6    1.0319     4.160
6 ...... 3       2.4768 /_  119.6    1.0312     4.160
8 ...... 1       2.4401 /_   -1.4     1.016     4.160        1-2      4.258 /_   29.3    1.0236
   -     2       2.4938 /_ -120.7    1.0383     4.160        2-3     4.2941 /_  -91.0    1.0322
   -     3       2.4627 /_  119.2    1.0254     4.160        3-1     4.2591 /_  148.7    1.0238
12 ..... 2       2.4931 /_ -120.7     1.038     4.160
9 ...... 1       2.4366 /_   -1.4    1.0145     4.160
13 ..... 1       2.4209 /_   -1.8     1.008     4.160        1-2     4.2327 /_   29.1    1.0175
   -     2       2.4885 /_ -121.0    1.0361     4.160        2-3     4.2789 /_  -91.3    1.0286
   -     3       2.4492 /_  118.9    1.0197     4.160        3-1     4.2338 /_  148.3    1.0177
9R ..... 1       2.4213 /_   -1.4    1.0081     4.160
14 ..... 1       2.4173 /_   -1.5    1.0065     4.160
34 ..... 3       2.4468 /_  118.9    1.0187     4.160
18 ..... 1       2.3993 /_   -2.3   0.99895     4.160        1-2     4.2017 /_   28.8      1.01
   -     2       2.4785 /_ -121.2     1.032     4.160        2-3      4.251 /_  -91.5    1.0219
   -     3       2.4314 /_  118.8    1.0123     4.160        3-1     4.2068 /_  148.1    1.0113
11 ..... 1       2.4157 /_   -1.5    1.0058     4.160
10 ..... 1       2.4165 /_   -1.5    1.0061     4.160
15 ..... 3       2.4459 /_  118.9    1.0184     4.160
16 ..... 3       2.4435 /_  118.9    1.0174     4.160
17 ..... 3       2.4448 /_  118.9    1.0179     4.160
19 ..... 1       2.3961 /_   -2.3   0.99763     4.160
21 ..... 1       2.3979 /_   -2.3    0.9984     4.160        1-2     4.1996 /_   28.8    1.0095
   -     2       2.4787 /_ -121.2     1.032     4.160        2-3     4.2491 /_  -91.5    1.0214
   -     3       2.4286 /_  118.8    1.0112     4.160        3-1     4.2039 /_  148.0    1.0105
20 ..... 1        2.394 /_   -2.3   0.99678     4.160
22 ..... 2       2.4752 /_ -121.2    1.0306     4.160
23 ..... 1       2.3969 /_   -2.4   0.99798     4.160        1-2      4.198 /_   28.8    1.0091
   -     2       2.4796 /_ -121.2    1.0324     4.160        2-3     4.2483 /_  -91.6    1.0212
   -     3       2.4259 /_  118.8      1.01     4.160        3-1     4.2014 /_  148.0      1.01
24 ..... 3       2.4224 /_  118.8    1.0086     4.160
25 ..... 1       2.3953 /_   -2.4   0.99732     4.160        1-2     4.1962 /_   28.8    1.0087
   -     2       2.4807 /_ -121.2    1.0328     4.160        2-3     4.2476 /_  -91.6    1.0211
   -     3       2.4238 /_  118.8    1.0092     4.160        3-1     4.1994 /_  148.0    1.0095
25R .... 1       2.3953 /_   -2.4   0.99731     4.160
   -     3       2.4086 /_  118.8    1.0029     4.160        3-1     4.1861 /_  148.1    1.0063
26 ..... 1       2.3947 /_   -2.5   0.99706     4.160
   -     3       2.4074 /_  118.8    1.0024     4.160        3-1     4.1849 /_  148.1     1.006
28 ..... 1       2.3944 /_   -2.5   0.99695     4.160        1-2     4.1953 /_   28.8    1.0085
   -     2       2.4812 /_ -121.2    1.0331     4.160        2-3     4.2473 /_  -91.6     1.021
   -     3        2.423 /_  118.8    1.0088     4.160        3-1     4.1985 /_  148.0    1.0093
27 ..... 1       2.3938 /_   -2.5    0.9967     4.160
   -     3       2.4074 /_  118.8    1.0023     4.160        3-1     4.1846 /_  148.1    1.0059
31 ..... 3        2.406 /_  118.8    1.0018     4.160
33 ..... 1       2.3907 /_   -2.5   0.99538     4.160
29 ..... 1        2.394 /_   -2.5   0.99678     4.160        1-2     4.1947 /_   28.8    1.0083
   -     2       2.4816 /_ -121.2    1.0332     4.160        2-3      4.247 /_  -91.6    1.0209
   -     3       2.4219 /_  118.8    1.0084     4.160        3-1     4.1975 /_  148.0     1.009
30 ..... 1       2.3947 /_   -2.5   0.99704     4.160        1-2     4.1948 /_   28.8    1.0084
   -     2       2.4815 /_ -121.2    1.0332     4.160        2-3     4.2466 /_  -91.6    1.0208
   -     3       2.4208 /_  118.8    1.0079     4.160        3-1     4.1967 /_  148.0    1.0088
250 .... 1       2.3947 /_   -2.5   0.99704     4.160        1-2     4.1948 /_   28.8    1.0084
   -     2       2.4815 /_ -121.2    1.0332     4.160        2-3     4.2466 /_  -91.6    1.0208
   -     3       2.4208 /_  118.8    1.0079     4.160        3-1     4.1967 /_  148.0    1.0088
32 ..... 3       2.4051 /_  118.8    1.0014     4.160
35 ..... 1       2.3926 /_   -2.4   0.99617     4.160        1-2     4.1907 /_   28.7    1.0074
   -     2       2.4724 /_ -121.3    1.0294     4.160        2-3      4.243 /_  -91.5    1.0199
   -     3       2.4288 /_  118.8    1.0113     4.160        3-1     4.1993 /_  148.0    1.0094
36 ..... 1       2.3903 /_   -2.4   0.99524     4.160        1-2     4.1884 /_   28.7    1.0068
   -     2       2.4713 /_ -121.3    1.0289     4.160
40 ..... 1       2.3889 /_   -2.4   0.99466     4.160        1-2     4.1854 /_   28.7    1.0061
   -     2       2.4697 /_ -121.3    1.0283     4.160        2-3     4.2384 /_  -91.6    1.0188
   -     3       2.4263 /_  118.7    1.0102     4.160        3-1     4.1938 /_  147.9    1.0081
37 ..... 1       2.3885 /_   -2.4   0.99445     4.160
38 ..... 2       2.4697 /_ -121.4    1.0283     4.160
39 ..... 2       2.4687 /_ -121.4    1.0279     4.160
41 ..... 3       2.4253 /_  118.7    1.0098     4.160
42 ..... 1       2.3851 /_   -2.4   0.99307     4.160        1-2     4.1802 /_   28.7    1.0049
   -     2        2.467 /_ -121.4    1.0271     4.160        2-3     4.2339 /_  -91.6    1.0178
   -     3       2.4242 /_  118.7    1.0093     4.160        3-1     4.1885 /_  147.9    1.0069
43 ..... 2       2.4637 /_ -121.4    1.0258     4.160
44 ..... 1       2.3825 /_   -2.5   0.99197     4.160        1-2     4.1764 /_   28.6    1.0039
   -     2       2.4653 /_ -121.4    1.0264     4.160        2-3     4.2308 /_  -91.7     1.017
   -     3       2.4222 /_  118.7    1.0085     4.160        3-1     4.1845 /_  147.8    1.0059
45 ..... 1       2.3812 /_   -2.5   0.99144     4.160
47 ..... 1         2.38 /_   -2.5   0.99093     4.160        1-2     4.1723 /_   28.6    1.0029
   -     2       2.4627 /_ -121.4    1.0254     4.160        2-3     4.2268 /_  -91.7    1.0161
   -     3       2.4198 /_  118.6    1.0075     4.160        3-1     4.1797 /_  147.8    1.0047
46 ..... 1       2.3803 /_   -2.5   0.99104     4.160
48 ..... 1       2.3793 /_   -2.5   0.99066     4.160        1-2     4.1711 /_   28.6    1.0027
   -     2        2.462 /_ -121.5    1.0251     4.160        2-3     4.2258 /_  -91.7    1.0158
   -     3       2.4193 /_  118.6    1.0073     4.160        3-1     4.1786 /_  147.8    1.0045
49 ..... 1       2.3793 /_   -2.5   0.99066     4.160        1-2     4.1706 /_   28.6    1.0025
   -     2       2.4614 /_ -121.5    1.0248     4.160        2-3     4.2254 /_  -91.7    1.0157
   -     3       2.4191 /_  118.6    1.0072     4.160        3-1     4.1782 /_  147.8    1.0044
50 ..... 1       2.3793 /_   -2.5   0.99064     4.160        1-2     4.1702 /_   28.6    1.0024
   -     2       2.4614 /_ -121.4    1.0248     4.160        2-3     4.2251 /_  -91.7    1.0157
   -     3       2.4183 /_  118.6    1.0069     4.160        3-1     4.1774 /_  147.8    1.0042
51 ..... 1       2.3789 /_   -2.5   0.99047     4.160        1-2     4.1698 /_   28.6    1.0024
   -     2       2.4616 /_ -121.4    1.0249     4.160        2-3     4.2252 /_  -91.7    1.0157
   -     3       2.4182 /_  118.6    1.0068     4.160        3-1     4.1773 /_  147.8    1.0041
151 .... 1       2.3789 /_   -2.5   0.99047     4.160        1-2     4.1698 /_   28.6    1.0024
   -     2       2.4616 /_ -121.4    1.0249     4.160        2-3     4.2252 /_  -91.7    1.0157
   -     3       2.4182 /_  118.6    1.0068     4.160        3-1     4.1773 /_  147.8    1.0041
52 ..... 1       2.4066 /_   -2.2     1.002     4.160        1-2     4.2148 /_   28.8    1.0132
   -     2       2.4854 /_ -121.2    1.0348     4.160        2-3     4.2697 /_  -91.6    1.0264
   -     3       2.4414 /_  118.7    1.0165     4.160        3-1     4.2172 /_  148.0    1.0138
53 ..... 1       2.4001 /_   -2.4   0.99929     4.160        1-2     4.2064 /_   28.7    1.0111
   -     2       2.4836 /_ -121.3    1.0341     4.160        2-3      4.265 /_  -91.7    1.0252
   -     3       2.4376 /_  118.5    1.0149     4.160        3-1     4.2092 /_  147.8    1.0118
54 ..... 1       2.3964 /_   -2.5   0.99776     4.160        1-2     4.2014 /_   28.7    1.0099
   -     2       2.4822 /_ -121.4    1.0335     4.160        2-3     4.2621 /_  -91.8    1.0245
   -     3       2.4352 /_  118.5    1.0139     4.160        3-1     4.2043 /_  147.7    1.0106
55 ..... 1       2.3959 /_   -2.5   0.99755     4.160        1-2     4.2009 /_   28.6    1.0098
   -     2        2.482 /_ -121.4    1.0334     4.160        2-3     4.2618 /_  -91.8    1.0245
   -     3       2.4354 /_  118.5     1.014     4.160        3-1     4.2041 /_  147.7    1.0106
57 ..... 1       2.3889 /_   -2.8   0.99463     4.160        1-2     4.1869 /_   28.4    1.0065
   -     2       2.4754 /_ -121.6    1.0307     4.160        2-3     4.2511 /_  -92.0    1.0219
   -     3        2.429 /_  118.2    1.0113     4.160        3-1     4.1941 /_  147.4    1.0082
56 ..... 1       2.3958 /_   -2.5   0.99752     4.160        1-2     4.2008 /_   28.6    1.0098
   -     2       2.4816 /_ -121.4    1.0332     4.160        2-3     4.2615 /_  -91.8    1.0244
   -     3       2.4356 /_  118.5    1.0141     4.160        3-1     4.2041 /_  147.7    1.0106
58 ..... 2       2.4739 /_ -121.6      1.03     4.160
60 ..... 1       2.3733 /_   -3.5   0.98813     4.160        1-2     4.1569 /_   27.9   0.99926
   -     2       2.4633 /_ -122.0    1.0256     4.160        2-3     4.2294 /_  -92.4    1.0167
   -     3       2.4145 /_  117.8    1.0053     4.160        3-1     4.1724 /_  146.9     1.003
59 ..... 2       2.4731 /_ -121.6    1.0297     4.160
61 ..... 1       2.3732 /_   -3.5   0.98812     4.160        1-2     4.1569 /_   27.9   0.99925
   -     2       2.4633 /_ -122.0    1.0256     4.160        2-3     4.2293 /_  -92.4    1.0167
   -     3       2.4145 /_  117.8    1.0053     4.160        3-1     4.1724 /_  146.9     1.003
62 ..... 1       2.3714 /_   -3.5   0.98736     4.160        1-2     4.1526 /_   27.9   0.99821
   -     2       2.4606 /_ -122.0    1.0245     4.160        2-3     4.2235 /_  -92.4    1.0153
   -     3       2.4096 /_  117.8    1.0032     4.160        3-1     4.1661 /_  146.9    1.0015
63 ..... 1         2.37 /_   -3.5   0.98675     4.160        1-2     4.1495 /_   27.9   0.99749
   -     2       2.4585 /_ -121.9    1.0236     4.160        2-3       4.22 /_  -92.4    1.0144
   -     3       2.4072 /_  117.8    1.0022     4.160        3-1     4.1624 /_  146.9    1.0006
64 ..... 1       2.3692 /_   -3.4   0.98642     4.160        1-2     4.1447 /_   27.9   0.99631
   -     2       2.4539 /_ -121.9    1.0217     4.160        2-3      4.213 /_  -92.4    1.0127
   -     3        2.402 /_  117.7    1.0001     4.160        3-1     4.1561 /_  146.9   0.99905
65 ..... 1       2.3675 /_   -3.4   0.98573     4.160        1-2     4.1414 /_   27.9   0.99553
   -     2       2.4531 /_ -121.9    1.0214     4.160        2-3     4.2071 /_  -92.5    1.0113
   -     3       2.3948 /_  117.7   0.99708     4.160        3-1     4.1484 /_  147.0   0.99721
66 ..... 1       2.3681 /_   -3.5   0.98596     4.160        1-2     4.1413 /_   27.9   0.99551
   -     2       2.4537 /_ -121.8    1.0216     4.160        2-3      4.205 /_  -92.5    1.0108
   -     3       2.3912 /_  117.7   0.99558     4.160        3-1     4.1462 /_  147.0   0.99668
67 ..... 1       2.4874 /_   -3.7    1.0356     4.160        1-2     4.2645 /_   27.0    1.0251
   -     2       2.4764 /_ -122.2    1.0311     4.160        2-3     4.3008 /_  -92.2    1.0338
   -     3       2.4848 /_  117.6    1.0346     4.160        3-1     4.3355 /_  147.0    1.0422
68 ..... 1       2.4837 /_   -3.8    1.0341     4.160
72 ..... 1       2.4883 /_   -3.8     1.036     4.160        1-2     4.2636 /_   26.9    1.0249
   -     2       2.4743 /_ -122.3    1.0302     4.160        2-3     4.2989 /_  -92.3    1.0334
   -     3       2.4843 /_  117.5    1.0344     4.160        3-1     4.3354 /_  146.9    1.0422
97 ..... 1        2.485 /_   -3.8    1.0346     4.160        1-2     4.2607 /_   27.0    1.0242
   -     2       2.4752 /_ -122.2    1.0306     4.160        2-3     4.2982 /_  -92.2    1.0332
   -     3       2.4831 /_  117.6    1.0338     4.160        3-1     4.3326 /_  146.9    1.0415
69 ..... 1       2.4795 /_   -3.8    1.0324     4.160
70 ..... 1       2.4765 /_   -3.8    1.0311     4.160
71 ..... 1       2.4748 /_   -3.8    1.0304     4.160
73 ..... 3       2.4792 /_  117.5    1.0322     4.160
76 ..... 1       2.4881 /_   -3.9     1.036     4.160        1-2     4.2631 /_   26.8    1.0248
   -     2        2.473 /_ -122.4    1.0297     4.160        2-3     4.2981 /_  -92.4    1.0332
   -     3       2.4858 /_  117.5     1.035     4.160        3-1     4.3368 /_  146.8    1.0425
74 ..... 3       2.4747 /_  117.5    1.0304     4.160
75 ..... 3       2.4723 /_  117.4    1.0294     4.160
77 ..... 1       2.4909 /_   -3.9    1.0371     4.160        1-2     4.2682 /_   26.7     1.026
   -     2       2.4758 /_ -122.4    1.0308     4.160        2-3     4.3023 /_  -92.4    1.0342
   -     3        2.488 /_  117.4    1.0359     4.160        3-1     4.3408 /_  146.7    1.0435
86 ..... 1        2.486 /_   -3.9    1.0351     4.160        1-2     4.2606 /_   26.7    1.0242
   -     2       2.4688 /_ -122.5    1.0279     4.160        2-3     4.2945 /_  -92.4    1.0323
   -     3       2.4893 /_  117.4    1.0364     4.160        3-1     4.3379 /_  146.7    1.0428
78 ..... 1       2.4917 /_   -4.0    1.0374     4.160        1-2     4.2695 /_   26.7    1.0263
   -     2       2.4768 /_ -122.4    1.0312     4.160        2-3     4.3036 /_  -92.5    1.0345
   -     3       2.4884 /_  117.4    1.0361     4.160        3-1     4.3418 /_  146.7    1.0437
79 ..... 1       2.4909 /_   -4.0    1.0371     4.160        1-2     4.2689 /_   26.7    1.0262
   -     2       2.4771 /_ -122.5    1.0314     4.160        2-3     4.3035 /_  -92.5    1.0345
   -     3       2.4883 /_  117.4     1.036     4.160        3-1     4.3416 /_  146.7    1.0436
80 ..... 1       2.4967 /_   -4.0    1.0395     4.160        1-2     4.2773 /_   26.6    1.0282
   -     2       2.4808 /_ -122.5    1.0329     4.160        2-3     4.3099 /_  -92.6     1.036
   -     3       2.4905 /_  117.3    1.0369     4.160        3-1      4.347 /_  146.7     1.045
81 ..... 1       2.4986 /_   -4.1    1.0403     4.160        1-2     4.2804 /_   26.6    1.0289
   -     2       2.4828 /_ -122.5    1.0337     4.160        2-3     4.3126 /_  -92.6    1.0367
   -     3        2.491 /_  117.2    1.0371     4.160        3-1     4.3489 /_  146.6    1.0454
82 ..... 1       2.5007 /_   -4.1    1.0412     4.160        1-2     4.2846 /_   26.6    1.0299
   -     2       2.4858 /_ -122.6     1.035     4.160        2-3     4.3169 /_  -92.6    1.0377
   -     3       2.4928 /_  117.2    1.0379     4.160        3-1     4.3524 /_  146.6    1.0463
84 ..... 3       2.4848 /_  117.2    1.0346     4.160
83 ..... 1       2.5035 /_   -4.1    1.0423     4.160        1-2     4.2894 /_   26.6    1.0311
   -     2       2.4885 /_ -122.6    1.0361     4.160        2-3     4.3213 /_  -92.7    1.0388
   -     3       2.4948 /_  117.2    1.0387     4.160        3-1     4.3562 /_  146.6    1.0472
85 ..... 3       2.4819 /_  117.2    1.0334     4.160
87 ..... 1       2.4848 /_   -3.9    1.0346     4.160        1-2     4.2593 /_   26.6    1.0239
   -     2       2.4668 /_ -122.6    1.0271     4.160        2-3     4.2925 /_  -92.4    1.0319
   -     3       2.4906 /_  117.4     1.037     4.160        3-1      4.338 /_  146.7    1.0428
88 ..... 1       2.4847 /_   -4.0    1.0345     4.160
89 ..... 1       2.4838 /_   -3.9    1.0341     4.160        1-2      4.259 /_   26.6    1.0238
   -     2       2.4662 /_ -122.7    1.0268     4.160        2-3     4.2921 /_  -92.4    1.0317
   -     3       2.4916 /_  117.4    1.0374     4.160        3-1     4.3376 /_  146.7    1.0427
90 ..... 2        2.466 /_ -122.7    1.0267     4.160
91 ..... 1       2.4833 /_   -3.9    1.0339     4.160        1-2     4.2583 /_   26.6    1.0236
   -     2       2.4654 /_ -122.7    1.0265     4.160        2-3     4.2919 /_  -92.5    1.0317
   -     3       2.4921 /_  117.4    1.0376     4.160        3-1     4.3373 /_  146.7    1.0426
92 ..... 3       2.4919 /_  117.3    1.0375     4.160
93 ..... 1       2.4825 /_   -3.9    1.0336     4.160        1-2     4.2575 /_   26.6    1.0234
   -     2        2.465 /_ -122.7    1.0263     4.160        2-3     4.2912 /_  -92.5    1.0315
   -     3       2.4923 /_  117.4    1.0377     4.160        3-1     4.3371 /_  146.7    1.0426
94 ..... 1       2.4808 /_   -3.9    1.0329     4.160
95 ..... 1       2.4824 /_   -3.9    1.0336     4.160        1-2     4.2573 /_   26.6    1.0234
   -     2       2.4641 /_ -122.7     1.026     4.160        2-3     4.2905 /_  -92.5    1.0314
   -     3       2.4928 /_  117.4    1.0379     4.160        3-1     4.3371 /_  146.7    1.0426
96 ..... 2       2.4635 /_ -122.7    1.0257     4.160
98 ..... 1       2.4845 /_   -3.8    1.0344     4.160        1-2     4.2597 /_   26.9     1.024
   -     2       2.4746 /_ -122.2    1.0303     4.160        2-3     4.2972 /_  -92.2     1.033
   -     3       2.4826 /_  117.6    1.0336     4.160        3-1     4.3317 /_  146.9    1.0413
99 ..... 1       2.4852 /_   -3.8    1.0347     4.160        1-2     4.2591 /_   26.9    1.0238
   -     2       2.4726 /_ -122.2    1.0295     4.160        2-3     4.2955 /_  -92.2    1.0326
   -     3       2.4818 /_  117.6    1.0333     4.160        3-1     4.3305 /_  146.9     1.041
100 .... 1       2.4857 /_   -3.8    1.0349     4.160        1-2      4.259 /_   26.9    1.0238
   -     2       2.4725 /_ -122.2    1.0294     4.160        2-3     4.2952 /_  -92.3    1.0325
   -     3       2.4808 /_  117.6    1.0329     4.160        3-1     4.3298 /_  146.9    1.0408
450 .... 1       2.4857 /_   -3.8    1.0349     4.160        1-2      4.259 /_   26.9    1.0238
   -     2       2.4725 /_ -122.2    1.0294     4.160        2-3     4.2952 /_  -92.3    1.0325
   -     3       2.4808 /_  117.6    1.0329     4.160        3-1     4.3298 /_  146.9    1.0408
197 .... 1        2.485 /_   -3.8    1.0346     4.160        1-2     4.2607 /_   27.0    1.0242
   -     2       2.4752 /_ -122.2    1.0306     4.160        2-3     4.2982 /_  -92.2    1.0332
   -     3       2.4831 /_  117.6    1.0338     4.160        3-1     4.3326 /_  146.9    1.0415
101 .... 1        2.483 /_   -3.8    1.0338     4.160        1-2     4.2579 /_   26.9    1.0235
   -     2       2.4746 /_ -122.2    1.0303     4.160        2-3     4.2964 /_  -92.2    1.0328
   -     3       2.4818 /_  117.6    1.0333     4.160        3-1     4.3304 /_  146.9     1.041
102 .... 3       2.4783 /_  117.6    1.0319     4.160
105 .... 1       2.4798 /_   -3.9    1.0325     4.160        1-2     4.2549 /_   26.9    1.0228
   -     2       2.4742 /_ -122.2    1.0302     4.160        2-3      4.295 /_  -92.2    1.0325
   -     3       2.4824 /_  117.6    1.0336     4.160        3-1     4.3297 /_  146.9    1.0408
103 .... 3       2.4743 /_  117.6    1.0302     4.160
104 .... 3         2.47 /_  117.5    1.0284     4.160
106 .... 2       2.4714 /_ -122.3     1.029     4.160
108 .... 1       2.4763 /_   -3.9     1.031     4.160        1-2      4.252 /_   26.9    1.0221
   -     2       2.4758 /_ -122.3    1.0308     4.160        2-3     4.2949 /_  -92.2    1.0324
   -     3       2.4821 /_  117.7    1.0334     4.160        3-1     4.3286 /_  146.8    1.0405
107 .... 2       2.4679 /_ -122.3    1.0275     4.160
109 .... 1       2.4664 /_   -4.0    1.0269     4.160
300 .... 1       2.4763 /_   -3.9     1.031     4.160        1-2      4.252 /_   26.9    1.0221
   -     2       2.4758 /_ -122.3    1.0308     4.160        2-3     4.2949 /_  -92.2    1.0324
   -     3       2.4821 /_  117.7    1.0334     4.160        3-1     4.3286 /_  146.8    1.0405
110 .... 1       2.4617 /_   -4.0    1.0249     4.160
111 .... 1       2.4599 /_   -4.1    1.0242     4.160
112 .... 1       2.4601 /_   -4.1    1.0243     4.160
113 .... 1        2.455 /_   -4.1    1.0222     4.160
114 .... 1        2.454 /_   -4.1    1.0218     4.160
135 .... 1       2.3993 /_   -2.3   0.99895     4.160        1-2     4.2017 /_   28.8      1.01
   -     2       2.4785 /_ -121.2     1.032     4.160        2-3      4.251 /_  -91.5    1.0219
   -     3       2.4314 /_  118.8    1.0123     4.160        3-1     4.2068 /_  148.1    1.0113
152 .... 1       2.4209 /_   -1.8     1.008     4.160        1-2     4.2327 /_   29.1    1.0175
   -     2       2.4885 /_ -121.0    1.0361     4.160        2-3     4.2789 /_  -91.3    1.0286
   -     3       2.4492 /_  118.9    1.0197     4.160        3-1     4.2338 /_  148.3    1.0177
160R ... 1       2.4919 /_   -3.5    1.0375     4.160        1-2     4.2719 /_   27.2    1.0269
   -     2       2.4787 /_ -122.0     1.032     4.160        2-3     4.3081 /_  -92.0    1.0356
   -     3         2.49 /_  117.8    1.0367     4.160        3-1     4.3416 /_  147.2    1.0436
160 .... 1       2.3733 /_   -3.5   0.98813     4.160        1-2     4.1569 /_   27.9   0.99926
   -     2       2.4633 /_ -122.0    1.0256     4.160        2-3     4.2294 /_  -92.4    1.0167
   -     3       2.4145 /_  117.8    1.0053     4.160        3-1     4.1724 /_  146.9     1.003
61S .... 1       2.3732 /_   -3.5   0.98812     4.160        1-2     4.1569 /_   27.9   0.99925
   -     2       2.4633 /_ -122.0    1.0256     4.160        2-3     4.2293 /_  -92.4    1.0167
   -     3       2.4145 /_  117.8    1.0053     4.160        3-1     4.1724 /_  146.9     1.003
300_OPEN 1       2.3789 /_   -2.5   0.99047     4.160        1-2     4.1698 /_   28.6    1.0024
   -     2       2.4616 /_ -121.4    1.0249     4.160        2-3     4.2252 /_  -91.7    1.0157
   -     3       2.4182 /_  118.6    1.0068     4.160        3-1     4.1773 /_  147.8    1.0041
94_OPEN  1       2.3964 /_   -2.5   0.99776     4.160
610 .... 1      0.27528 /_   -3.3   0.99333     0.480        1-2    0.47938 /_   27.9   0.99872
   -     2       0.2824 /_ -121.8     1.019     0.480        2-3    0.48774 /_  -92.4    1.0161
   -     3      0.27852 /_  117.4     1.005     0.480        3-1    0.48117 /_  146.9    1.0024
